plots/csv/rotor_angle_dev_bus23_julia.csv
t_s,rotor_angle_dev_rad,bus_voltage_angle_dev_rad,angle_source,angle_is_exact_bus_voltage
0.0,0.0,0.0,Vmag_get_voltage_magnitude_series__angle_get_voltage_angle_series,true
0.01,9.992007221626397e-17,9.992007221626397e-17,Vmag_get_voltage_magnitude_series__angle_get_voltage_angle_series,true
0.02,-2.636779683484814e-16,-2.636779683484814e-16,Vmag_get_voltage_magnitude_series__angle_get_voltage_angle_series,true
0.03,-2.220446049251735e-17,-2.220446049251735e-17,Vmag_get_voltage_magnitude_series__angle_get_voltage_angle_series,true
0.04,9.159339953158558e-17,9.159339953158558e-17,Vmag_get_voltage_magnitude_series__angle_get_voltage_angle_series,true
0.05,1.1102230246257066e-17,1.1102230246257066e-17,Vmag_get_voltage_magnitude_series__angle_get_voltage_angle_series,true
0.06,2.1570415377137042e-29,2.1570415377137042e-29,Vmag_get_voltage_magnitude_series__angle_get_voltage_angle_series,true
0.07,-2.5535129566380694e-16,-2.5535129566380694e-16,Vmag_get_voltage_magnitude_series__angle_get_voltage_angle_series,true
0.08,-4.996003610816924e-17,-4.996003610816924e-17,Vmag_get_voltage_magnitude_series__angle_get_voltage_angle_series,true
0.09,-3.1918911957976756e-16,-3.1918911957976756e-16,Vmag_get_voltage_magnitude_series__angle_get_voltage_angle_series,true
0.1,4.163336342344337e-16,4.163336342344337e-16,Vmag_get_voltage_magnitude_series__angle_get_voltage_angle_series,true
0.11,-0.005020351555883558,-0.005020351555883558,Vmag_get_voltage_magnitude_series__angle_get_voltage_angle_series,true
0.12,-0.005455817512143659,-0.005455817512143659,Vmag_get_voltage_magnitude_series__angle_get_voltage_angle_series,true
0.13,-0.0057621987081790125,-0.0057621987081790125,Vmag_get_voltage_magnitude_series__angle_get_voltage_angle_series,true
0.14,-0.0062090462097130145,-0.0062090462097130145,Vmag_get_voltage_magnitude_series__angle_get_voltage_angle_series,true
0.15,-0.006600004006106993,-0.006600004006106993,Vmag_get_voltage_magnitude_series__angle_get_voltage_angle_series,true
0.16,-0.007048507264687904,-0.007048507264687904,Vmag_get_voltage_magnitude_series__angle_get_voltage_angle_series,true
0.17,-0.007520963301054324,-0.007520963301054324,Vmag_get_voltage_magnitude_series__angle_get_voltage_angle_series,true
0.18,-0.008026278085793342,-0.008026278085793342,Vmag_get_voltage_magnitude_series__angle_get_voltage_angle_series,true
0.19,-0.008558532764643748,-0.008558532764643748,Vmag_get_voltage_magnitude_series__angle_get_voltage_angle_series,true
0.2,-0.009118623286567974,-0.009118623286567974,Vmag_get_voltage_magnitude_series__angle_get_voltage_angle_series,true
0.21,-0.009703757384051555,-0.009703757384051555,Vmag_get_voltage_magnitude_series__angle_get_voltage_angle_series,true
0.22,-0.010312178954296963,-0.010312178954296963,Vmag_get_voltage_magnitude_series__angle_get_voltage_angle_series,true
0.23,-0.010941634480066962,-0.010941634480066962,Vmag_get_voltage_magnitude_series__angle_get_voltage_angle_series,true
0.24,-0.0115900149621431,-0.0115900149621431,Vmag_get_voltage_magnitude_series__angle_get_voltage_angle_series,true
0.25,-0.012255110834028533,-0.012255110834028533,Vmag_get_voltage_magnitude_series__angle_get_voltage_angle_series,true
0.26,-0.012934772463951291,-0.012934772463951291,Vmag_get_voltage_magnitude_series__angle_get_voltage_angle_series,true
0.27,-0.013626874500008507,-0.013626874500008507,Vmag_get_voltage_magnitude_series__angle_get_voltage_angle_series,true
0.28,-0.01432934908983266,-0.01432934908983266,Vmag_get_voltage_magnitude_series__angle_get_voltage_angle_series,true
0.29,-0.015040183408588963,-0.015040183408588963,Vmag_get_voltage_magnitude_series__angle_get_voltage_angle_series,true
0.3,-0.015757428551544418,-0.015757428551544418,Vmag_get_voltage_magnitude_series__angle_get_voltage_angle_series,true
0.31,-0.016479200139760834,-0.016479200139760834,Vmag_get_voltage_magnitude_series__angle_get_voltage_angle_series,true
0.32,-0.017203679828107332,-0.017203679828107332,Vmag_get_voltage_magnitude_series__angle_get_voltage_angle_series,true
0.33,-0.017929115054441513,-0.017929115054441513,Vmag_get_voltage_magnitude_series__angle_get_voltage_angle_series,true
0.34,-0.01865381875184828,-0.01865381875184828,Vmag_get_voltage_magnitude_series__angle_get_voltage_angle_series,true
0.35,-0.019376168772144473,-0.019376168772144473,Vmag_get_voltage_magnitude_series__angle_get_voltage_angle_series,true
0.36,-0.020094607233320717,-0.020094607233320717,Vmag_get_voltage_magnitude_series__angle_get_voltage_angle_series,true
0.37,-0.02080764021275011,-0.02080764021275011,Vmag_get_voltage_magnitude_series__angle_get_voltage_angle_series,true
0.38,-0.021513837462083744,-0.021513837462083744,Vmag_get_voltage_magnitude_series__angle_get_voltage_angle_series,true
0.39,-0.022211832524366378,-0.022211832524366378,Vmag_get_voltage_magnitude_series__angle_get_voltage_angle_series,true
0.4,-0.022900323039583094,-0.022900323039583094,Vmag_get_voltage_magnitude_series__angle_get_voltage_angle_series,true
0.41,-0.023578071261880926,-0.023578071261880926,Vmag_get_voltage_magnitude_series__angle_get_voltage_angle_series,true
0.42,-0.024243904865982772,-0.024243904865982772,Vmag_get_voltage_magnitude_series__angle_get_voltage_angle_series,true
0.43,-0.024896717804795118,-0.024896717804795118,Vmag_get_voltage_magnitude_series__angle_get_voltage_angle_series,true
0.44,-0.02553547142261941,-0.02553547142261941,Vmag_get_voltage_magnitude_series__angle_get_voltage_angle_series,true
0.45,-0.026159195482645503,-0.026159195482645503,Vmag_get_voltage_magnitude_series__angle_get_voltage_angle_series,true
0.46,-0.026766989375499373,-0.026766989375499373,Vmag_get_voltage_magnitude_series__angle_get_voltage_angle_series,true
0.47,-0.027358023160800667,-0.027358023160800667,Vmag_get_voltage_magnitude_series__angle_get_voltage_angle_series,true
0.48,-0.02793153869893254,-0.02793153869893254,Vmag_get_voltage_magnitude_series__angle_get_voltage_angle_series,true
0.49,-0.028486850489856656,-0.028486850489856656,Vmag_get_voltage_magnitude_series__angle_get_voltage_angle_series,true
0.5,-0.029023346599907553,-0.029023346599907553,Vmag_get_voltage_magnitude_series__angle_get_voltage_angle_series,true
0.51,-0.0295404891904268,-0.0295404891904268,Vmag_get_voltage_magnitude_series__angle_get_voltage_angle_series,true
0.52,-0.030037815082753508,-0.030037815082753508,Vmag_get_voltage_magnitude_series__angle_get_voltage_angle_series,true
0.53,-0.03051493586110604,-0.03051493586110604,Vmag_get_voltage_magnitude_series__angle_get_voltage_angle_series,true
0.54,-0.03097153799114566,-0.03097153799114566,Vmag_get_voltage_magnitude_series__angle_get_voltage_angle_series,true
0.55,-0.03140738245484063,-0.03140738245484063,Vmag_get_voltage_magnitude_series__angle_get_voltage_angle_series,true
0.56,-0.031822304325602534,-0.031822304325602534,Vmag_get_voltage_magnitude_series__angle_get_voltage_angle_series,true
0.57,-0.03221621188250329,-0.03221621188250329,Vmag_get_voltage_magnitude_series__angle_get_voltage_angle_series,true
0.58,-0.03258908562433,-0.03258908562433,Vmag_get_voltage_magnitude_series__angle_get_voltage_angle_series,true
0.59,-0.0329409768313587,-0.0329409768313587,Vmag_get_voltage_magnitude_series__angle_get_voltage_angle_series,true
0.6,-0.03327200601164748,-0.03327200601164748,Vmag_get_voltage_magnitude_series__angle_get_voltage_angle_series,true
0.61,-0.03358236092010182,-0.03358236092010182,Vmag_get_voltage_magnitude_series__angle_get_voltage_angle_series,true
0.62,-0.033872294409783094,-0.033872294409783094,Vmag_get_voltage_magnitude_series__angle_get_voltage_angle_series,true
0.63,-0.034142121952328366,-0.034142121952328366,Vmag_get_voltage_magnitude_series__angle_get_voltage_angle_series,true
0.64,-0.0343922189183491,-0.0343922189183491,Vmag_get_voltage_magnitude_series__angle_get_voltage_angle_series,true
0.65,-0.03462301767129524,-0.03462301767129524,Vmag_get_voltage_magnitude_series__angle_get_voltage_angle_series,true
0.66,-0.03483500429075351,-0.03483500429075351,Vmag_get_voltage_magnitude_series__angle_get_voltage_angle_series,true
0.67,-0.03502871525748501,-0.03502871525748501,Vmag_get_voltage_magnitude_series__angle_get_voltage_angle_series,true
0.68,-0.035204733788535475,-0.035204733788535475,Vmag_get_voltage_magnitude_series__angle_get_voltage_angle_series,true
0.69,-0.03536368608828811,-0.03536368608828811,Vmag_get_voltage_magnitude_series__angle_get_voltage_angle_series,true
0.7,-0.03550623744339559,-0.03550623744339559,Vmag_get_voltage_magnitude_series__angle_get_voltage_angle_series,true
0.71,-0.035633088109778666,-0.035633088109778666,Vmag_get_voltage_magnitude_series__angle_get_voltage_angle_series,true
0.72,-0.035744969203174354,-0.035744969203174354,Vmag_get_voltage_magnitude_series__angle_get_voltage_angle_series,true
0.73,-0.03584263841133004,-0.03584263841133004,Vmag_get_voltage_magnitude_series__angle_get_voltage_angle_series,true
0.74,-0.035926875712238716,-0.035926875712238716,Vmag_get_voltage_magnitude_series__angle_get_voltage_angle_series,true
0.75,-0.03599847904743671,-0.03599847904743671,Vmag_get_voltage_magnitude_series__angle_get_voltage_angle_series,true
0.76,-0.036058259975682516,-0.036058259975682516,Vmag_get_voltage_magnitude_series__angle_get_voltage_angle_series,true
0.77,-0.036107039380946074,-0.036107039380946074,Vmag_get_voltage_magnitude_series__angle_get_voltage_angle_series,true
0.78,-0.03614564320781427,-0.03614564320781427,Vmag_get_voltage_magnitude_series__angle_get_voltage_angle_series,true
0.79,-0.03617489828561872,-0.03617489828561872,Vmag_get_voltage_magnitude_series__angle_get_voltage_angle_series,true
0.8,-0.03619562824809808,-0.03619562824809808,Vmag_get_voltage_magnitude_series__angle_get_voltage_angle_series,true
0.81,-0.03620864959361273,-0.03620864959361273,Vmag_get_voltage_magnitude_series__angle_get_voltage_angle_series,true
0.82,-0.036214767871043614,-0.036214767871043614,Vmag_get_voltage_magnitude_series__angle_get_voltage_angle_series,true
0.83,-0.03621477405795132,-0.03621477405795132,Vmag_get_voltage_magnitude_series__angle_get_voltage_angle_series,true
0.84,-0.03620944110156582,-0.03620944110156582,Vmag_get_voltage_magnitude_series__angle_get_voltage_angle_series,true
0.85,-0.03619952071768379,-0.03619952071768379,Vmag_get_voltage_magnitude_series__angle_get_voltage_angle_series,true
0.86,-0.03618574034422017,-0.03618574034422017,Vmag_get_voltage_magnitude_series__angle_get_voltage_angle_series,true
0.87,-0.036168800405287846,-0.036168800405287846,Vmag_get_voltage_magnitude_series__angle_get_voltage_angle_series,true
0.88,-0.0361493717493158,-0.0361493717493158,Vmag_get_voltage_magnitude_series__angle_get_voltage_angle_series,true
0.89,-0.03612809344366341,-0.03612809344366341,Vmag_get_voltage_magnitude_series__angle_get_voltage_angle_series,true
0.9,-0.03610557072822648,-0.03610557072822648,Vmag_get_voltage_magnitude_series__angle_get_voltage_angle_series,true
0.91,-0.03608237334505568,-0.03608237334505568,Vmag_get_voltage_magnitude_series__angle_get_voltage_angle_series,true
0.92,-0.03605903406991572,-0.03605903406991572,Vmag_get_voltage_magnitude_series__angle_get_voltage_angle_series,true
0.93,-0.0360360475551906,-0.0360360475551906,Vmag_get_voltage_magnitude_series__angle_get_voltage_angle_series,true
0.94,-0.03601386946933128,-0.03601386946933128,Vmag_get_voltage_magnitude_series__angle_get_voltage_angle_series,true
0.95,-0.035992915857185545,-0.035992915857185545,Vmag_get_voltage_magnitude_series__angle_get_voltage_angle_series,true
0.96,-0.03597356284089215,-0.03597356284089215,Vmag_get_voltage_magnitude_series__angle_get_voltage_angle_series,true
0.97,-0.035956146502088615,-0.035956146502088615,Vmag_get_voltage_magnitude_series__angle_get_voltage_angle_series,true
0.98,-0.03594096311406058,-0.03594096311406058,Vmag_get_voltage_magnitude_series__angle_get_voltage_angle_series,true
0.99,-0.03592826952329416,-0.03592826952329416,Vmag_get_voltage_magnitude_series__angle_get_voltage_angle_series,true
1.0,-0.03591828383933657,-0.03591828383933657,Vmag_get_voltage_magnitude_series__angle_get_voltage_angle_series,true
1.01,-0.035911186312578794,-0.035911186312578794,Vmag_get_voltage_magnitude_series__angle_get_voltage_angle_series,true
1.02,-0.035907120387915596,-0.035907120387915596,Vmag_get_voltage_magnitude_series__angle_get_voltage_angle_series,true
1.03,-0.03590619403529169,-0.03590619403529169,Vmag_get_voltage_magnitude_series__angle_get_voltage_angle_series,true
1.04,-0.03590848114017811,-0.03590848114017811,Vmag_get_voltage_magnitude_series__angle_get_voltage_angle_series,true
1.05,-0.03591402315838557,-0.03591402315838557,Vmag_get_voltage_magnitude_series__angle_get_voltage_angle_series,true
1.06,-0.03592283084232005,-0.03592283084232005,Vmag_get_voltage_magnitude_series__angle_get_voltage_angle_series,true
1.07,-0.035934886090870505,-0.035934886090870505,Vmag_get_voltage_magnitude_series__angle_get_voltage_angle_series,true
1.08,-0.035950143954212366,-0.035950143954212366,Vmag_get_voltage_magnitude_series__angle_get_voltage_angle_series,true
1.09,-0.03596853465253924,-0.03596853465253924,Vmag_get_voltage_magnitude_series__angle_get_voltage_angle_series,true
1.1,-0.03598996572536001,-0.03598996572536001,Vmag_get_voltage_magnitude_series__angle_get_voltage_angle_series,true
1.11,-0.03601432417243718,-0.03601432417243718,Vmag_get_voltage_magnitude_series__angle_get_voltage_angle_series,true
1.12,-0.036041478674565024,-0.036041478674565024,Vmag_get_voltage_magnitude_series__angle_get_voltage_angle_series,true
1.13,-0.03607128178198884,-0.03607128178198884,Vmag_get_voltage_magnitude_series__angle_get_voltage_angle_series,true
1.14,-0.03610357213461694,-0.03610357213461694,Vmag_get_voltage_magnitude_series__angle_get_voltage_angle_series,true
1.15,-0.03613817663917161,-0.03613817663917161,Vmag_get_voltage_magnitude_series__angle_get_voltage_angle_series,true
1.16,-0.03617491262389945,-0.03617491262389945,Vmag_get_voltage_magnitude_series__angle_get_voltage_angle_series,true
1.17,-0.03621358993242196,-0.03621358993242196,Vmag_get_voltage_magnitude_series__angle_get_voltage_angle_series,true
1.18,-0.03625401296794421,-0.03625401296794421,Vmag_get_voltage_magnitude_series__angle_get_voltage_angle_series,true
1.19,-0.03629598264892457,-0.03629598264892457,Vmag_get_voltage_magnitude_series__angle_get_voltage_angle_series,true
1.2,-0.03633929828990773,-0.03633929828990773,Vmag_get_voltage_magnitude_series__angle_get_voltage_angle_series,true
1.21,-0.03638375937809535,-0.03638375937809535,Vmag_get_voltage_magnitude_series__angle_get_voltage_angle_series,true
1.22,-0.0364291672465509,-0.0364291672465509,Vmag_get_voltage_magnitude_series__angle_get_voltage_angle_series,true
1.23,-0.036475326641464655,-0.036475326641464655,Vmag_get_voltage_magnitude_series__angle_get_voltage_angle_series,true
1.24,-0.0365220471616199,-0.0365220471616199,Vmag_get_voltage_magnitude_series__angle_get_voltage_angle_series,true
1.25,-0.036569144584420364,-0.036569144584420364,Vmag_get_voltage_magnitude_series__angle_get_voltage_angle_series,true
1.26,-0.036616442048492036,-0.036616442048492036,Vmag_get_voltage_magnitude_series__angle_get_voltage_angle_series,true
1.27,-0.036663771124955793,-0.036663771124955793,Vmag_get_voltage_magnitude_series__angle_get_voltage_angle_series,true
1.28,-0.03671097274956208,-0.03671097274956208,Vmag_get_voltage_magnitude_series__angle_get_voltage_angle_series,true
1.29,-0.03675789801637769,-0.03675789801637769,Vmag_get_voltage_magnitude_series__angle_get_voltage_angle_series,true
1.3,-0.03680440884815185,-0.03680440884815185,Vmag_get_voltage_magnitude_series__angle_get_voltage_angle_series,true
1.31,-0.036850378535008034,-0.036850378535008034,Vmag_get_voltage_magnitude_series__angle_get_voltage_angle_series,true
1.32,-0.036895692150252166,-0.036895692150252166,Vmag_get_voltage_magnitude_series__angle_get_voltage_angle_series,true
1.33,-0.036940246830409994,-0.036940246830409994,Vmag_get_voltage_magnitude_series__angle_get_voltage_angle_series,true
1.34,-0.03698395195546947,-0.03698395195546947,Vmag_get_voltage_magnitude_series__angle_get_voltage_angle_series,true
1.35,-0.0370267291959405,-0.0370267291959405,Vmag_get_voltage_magnitude_series__angle_get_voltage_angle_series,true
1.36,-0.037068512471617264,-0.037068512471617264,Vmag_get_voltage_magnitude_series__angle_get_voltage_angle_series,true
1.37,-0.03710924778761515,-0.03710924778761515,Vmag_get_voltage_magnitude_series__angle_get_voltage_angle_series,true
1.38,-0.037148892989958035,-0.037148892989958035,Vmag_get_voltage_magnitude_series__angle_get_voltage_angle_series,true
1.39,-0.03718741743886256,-0.03718741743886256,Vmag_get_voltage_magnitude_series__angle_get_voltage_angle_series,true
1.4,-0.037224801578478135,-0.037224801578478135,Vmag_get_voltage_magnitude_series__angle_get_voltage_angle_series,true
1.41,-0.037261036467293486,-0.037261036467293486,Vmag_get_voltage_magnitude_series__angle_get_voltage_angle_series,true
1.42,-0.037296123211171636,-0.037296123211171636,Vmag_get_voltage_magnitude_series__angle_get_voltage_angle_series,true
1.43,-0.0373300723653695,-0.0373300723653695,Vmag_get_voltage_magnitude_series__angle_get_voltage_angle_series,true
1.44,-0.037362903283949214,-0.037362903283949214,Vmag_get_voltage_magnitude_series__angle_get_voltage_angle_series,true
1.45,-0.0373946434184075,-0.0373946434184075,Vmag_get_voltage_magnitude_series__angle_get_voltage_angle_series,true
1.46,-0.03742532759985591,-0.03742532759985591,Vmag_get_voltage_magnitude_series__angle_get_voltage_angle_series,true
1.47,-0.037454997286009296,-0.037454997286009296,Vmag_get_voltage_magnitude_series__angle_get_voltage_angle_series,true
1.48,-0.037483699802231145,-0.037483699802231145,Vmag_get_voltage_magnitude_series__angle_get_voltage_angle_series,true
1.49,-0.03751148756809479,-0.03751148756809479,Vmag_get_voltage_magnitude_series__angle_get_voltage_angle_series,true
1.5,-0.03753841732342364,-0.03753841732342364,Vmag_get_voltage_magnitude_series__angle_get_voltage_angle_series,true
1.51,-0.037564549360492284,-0.037564549360492284,Vmag_get_voltage_magnitude_series__angle_get_voltage_angle_series,true
1.52,-0.03758994677034388,-0.03758994677034388,Vmag_get_voltage_magnitude_series__angle_get_voltage_angle_series,true
1.53,-0.03761467470238833,-0.03761467470238833,Vmag_get_voltage_magnitude_series__angle_get_voltage_angle_series,true
1.54,-0.03763879965082835,-0.03763879965082835,Vmag_get_voltage_magnitude_series__angle_get_voltage_angle_series,true
1.55,-0.03766238876478492,-0.03766238876478492,Vmag_get_voltage_magnitude_series__angle_get_voltage_angle_series,true
1.56,-0.037685509194492206,-0.037685509194492206,Vmag_get_voltage_magnitude_series__angle_get_voltage_angle_series,true
1.57,-0.037708227473177584,-0.037708227473177584,Vmag_get_voltage_magnitude_series__angle_get_voltage_angle_series,true
1.58,-0.037730608936028406,-0.037730608936028406,Vmag_get_voltage_magnitude_series__angle_get_voltage_angle_series,true
1.59,-0.03775271718380682,-0.03775271718380682,Vmag_get_voltage_magnitude_series__angle_get_voltage_angle_series,true
1.6,-0.03777461359106448,-0.03777461359106448,Vmag_get_voltage_magnitude_series__angle_get_voltage_angle_series,true
1.61,-0.03779635685828664,-0.03779635685828664,Vmag_get_voltage_magnitude_series__angle_get_voltage_angle_series,true
1.62,-0.03781800261785954,-0.03781800261785954,Vmag_get_voltage_magnitude_series__angle_get_voltage_angle_series,true
1.63,-0.037839603081279594,-0.037839603081279594,Vmag_get_voltage_magnitude_series__angle_get_voltage_angle_series,true
1.64,-0.03786120674162618,-0.03786120674162618,Vmag_get_voltage_magnitude_series__angle_get_voltage_angle_series,true
1.65,-0.03788285812077349,-0.03788285812077349,Vmag_get_voltage_magnitude_series__angle_get_voltage_angle_series,true
1.66,-0.03790459757103013,-0.03790459757103013,Vmag_get_voltage_magnitude_series__angle_get_voltage_angle_series,true
1.67,-0.037926461115571866,-0.037926461115571866,Vmag_get_voltage_magnitude_series__angle_get_voltage_angle_series,true
1.68,-0.037948480345057954,-0.037948480345057954,Vmag_get_voltage_magnitude_series__angle_get_voltage_angle_series,true
1.69,-0.03797068235028643,-0.03797068235028643,Vmag_get_voltage_magnitude_series__angle_get_voltage_angle_series,true
1.7,-0.03799308970704598,-0.03799308970704598,Vmag_get_voltage_magnitude_series__angle_get_voltage_angle_series,true
1.71,-0.03801572049498979,-0.03801572049498979,Vmag_get_voltage_magnitude_series__angle_get_voltage_angle_series,true
1.72,-0.0380385883541303,-0.0380385883541303,Vmag_get_voltage_magnitude_series__angle_get_voltage_angle_series,true
1.73,-0.03806170258660091,-0.03806170258660091,Vmag_get_voltage_magnitude_series__angle_get_voltage_angle_series,true
1.74,-0.03808506827848253,-0.03808506827848253,Vmag_get_voltage_magnitude_series__angle_get_voltage_angle_series,true
1.75,-0.03810868646504689,-0.03810868646504689,Vmag_get_voltage_magnitude_series__angle_get_voltage_angle_series,true
1.76,-0.0381325543137028,-0.0381325543137028,Vmag_get_voltage_magnitude_series__angle_get_voltage_angle_series,true
1.77,-0.03815666533281396,-0.03815666533281396,Vmag_get_voltage_magnitude_series__angle_get_voltage_angle_series,true
1.78,-0.038181009607941754,-0.038181009607941754,Vmag_get_voltage_magnitude_series__angle_get_voltage_angle_series,true
1.79,-0.03820557404686292,-0.03820557404686292,Vmag_get_voltage_magnitude_series__angle_get_voltage_angle_series,true
1.8,-0.038230342647492796,-0.038230342647492796,Vmag_get_voltage_magnitude_series__angle_get_voltage_angle_series,true
1.81,-0.03825529677064819,-0.03825529677064819,Vmag_get_voltage_magnitude_series__angle_get_voltage_angle_series,true
1.82,-0.038280415428215316,-0.038280415428215316,Vmag_get_voltage_magnitude_series__angle_get_voltage_angle_series,true
1.83,-0.03830567557116216,-0.03830567557116216,Vmag_get_voltage_magnitude_series__angle_get_voltage_angle_series,true
1.84,-0.03833105238478215,-0.03833105238478215,Vmag_get_voltage_magnitude_series__angle_get_voltage_angle_series,true
1.85,-0.03835651958163679,-0.03835651958163679,Vmag_get_voltage_magnitude_series__angle_get_voltage_angle_series,true
1.86,-0.03838204969411238,-0.03838204969411238,Vmag_get_voltage_magnitude_series__angle_get_voltage_angle_series,true
1.87,-0.038407614360697485,-0.038407614360697485,Vmag_get_voltage_magnitude_series__angle_get_voltage_angle_series,true
1.88,-0.03843318460702555,-0.03843318460702555,Vmag_get_voltage_magnitude_series__angle_get_voltage_angle_series,true
1.89,-0.038458731116274236,-0.038458731116274236,Vmag_get_voltage_magnitude_series__angle_get_voltage_angle_series,true
1.9,-0.038484224490066395,-0.038484224490066395,Vmag_get_voltage_magnitude_series__angle_get_voltage_angle_series,true
1.91,-0.038509635496638585,-0.038509635496638585,Vmag_get_voltage_magnitude_series__angle_get_voltage_angle_series,true
1.92,-0.03853493530487638,-0.03853493530487638,Vmag_get_voltage_magnitude_series__angle_get_voltage_angle_series,true
1.93,-0.03856009570376216,-0.03856009570376216,Vmag_get_voltage_magnitude_series__angle_get_voltage_angle_series,true
1.94,-0.03858508930407134,-0.03858508930407134,Vmag_get_voltage_magnitude_series__angle_get_voltage_angle_series,true
1.95,-0.0386098897251658,-0.0386098897251658,Vmag_get_voltage_magnitude_series__angle_get_voltage_angle_series,true
1.96,-0.03863447176318481,-0.03863447176318481,Vmag_get_voltage_magnitude_series__angle_get_voltage_angle_series,true
1.97,-0.03865881153942538,-0.03865881153942538,Vmag_get_voltage_magnitude_series__angle_get_voltage_angle_series,true
1.98,-0.038682886633215445,-0.038682886633215445,Vmag_get_voltage_magnitude_series__angle_get_voltage_angle_series,true
1.99,-0.03870667619274963,-0.03870667619274963,Vmag_get_voltage_magnitude_series__angle_get_voltage_angle_series,true
...
